PyDSS/api/src/tmp/218672ac-d416-4e9f-8578-0d2a531aa33c_distribution_federate/Lines.dss
New Line.l(r:p1rdt1681lv-p1rlv3262) Units=km Length=0.0161651 bus1=p1rdt1681lv.1.2 bus2=p1rlv3262.1.2 switch=n enabled=y phases=2 Linecode=1P_OH_AL_2/0_Rucina_2

New Line.l(r:p1rdt1681lv-p1rlv3263) Units=km Length=0.00971074 bus1=p1rdt1681lv.1.2 bus2=p1rlv3263.1.2 switch=n enabled=y phases=2 Linecode=1P_OH_AL_2/0_Rucina_2

New Line.l(r:p1rdt1683lv-p1rlv3267) Units=km Length=0.001 bus1=p1rdt1683lv.1.2 bus2=p1rlv3267.1.2 switch=n enabled=y phases=2 Linecode=1P_UG_AL_4/0_Sweetbriar_2

New Line.l(r:p1rdt1684lv-p1rlv3270) Units=km Length=0.0646757 bus1=p1rdt1684lv.1.2 bus2=p1rlv3270.1.2 switch=n enabled=y phases=2 Linecode=1P_UG_AL_1/0_Brenau_2

New Line.l(r:p1rdm3304-p1rlv3268) Units=km Length=0.0029427200000000002 bus1=p1rdm3304.1.2 bus2=p1rlv3268.1.2 switch=n enabled=y phases=2 Linecode=1P_UG_AL_2/0_Converse_2

New Line.l(r:p1rdm3304-p1rdt1684lv) Units=km Length=0.00990129 bus1=p1rdt1684lv.1.2 bus2=p1rdm3304.1.2 switch=n enabled=y phases=2 Linecode=1P_UG_AL_2/0_Converse_2

New Line.l(r:p1rdt1686lv-p1rlv3272) Units=km Length=0.0913389 bus1=p1rdt1686lv.1.2 bus2=p1rlv3272.1.2 switch=n enabled=y phases=2 Linecode=1P_UG_AL_1/0_Brenau_2

New Line.l(r:p1rdm3307-p1rlv3271) Units=km Length=0.0516488 bus1=p1rdm3307.1.2 bus2=p1rlv3271.1.2 switch=n enabled=y phases=2 Linecode=1P_OH_AL_4/0_Zuzara_2

New Line.l(r:p1rdm3307-p1rdt1686lv) Units=km Length=0.0171497 bus1=p1rdt1686lv.1.2 bus2=p1rdm3307.1.2 switch=n enabled=y phases=2 Linecode=1P_OH_AL_2/0_Rucina_2

New Line.l(r:p1rdm3309-p1rlv3273) Units=km Length=0.0965626 bus1=p1rdm3309.1.2 bus2=p1rlv3273.1.2 switch=n enabled=y phases=2 Linecode=1P_UG_AL_4/0_Sweetbriar_2

New Line.l(r:p1rdm3309-p1rdt1686lv) Units=km Length=0.00857198 bus1=p1rdt1686lv.1.2 bus2=p1rdm3309.1.2 switch=n enabled=y phases=2 Linecode=1P_UG_AL_4/0_Sweetbriar_2

New Line.l(r:p1rdt1687lv-p1rlv3274) Units=km Length=0.001 bus1=p1rdt1687lv.1.2 bus2=p1rlv3274.1.2 switch=n enabled=y phases=2 Linecode=1P_OH_AL_4_Periwinkle_2

New Line.l(r:p1rdt1688lv-p1rlv3275) Units=km Length=0.0984868 bus1=p1rdt1688lv.1.2 bus2=p1rlv3275.1.2 switch=n enabled=y phases=2 Linecode=1P_UG_AL_4/0_Sweetbriar_2

New Line.l(r:p1rdt1688lv-p1rlv3276) Units=km Length=0.114578 bus1=p1rdt1688lv.1.2 bus2=p1rlv3276.1.2 switch=n enabled=y phases=2 Linecode=1P_UG_AL_4/0_Sweetbriar_2

New Line.l(r:p1rdm3313-p1rlv3277) Units=km Length=0.03253910000000001 bus1=p1rdm3313.1.2 bus2=p1rlv3277.1.2 switch=n enabled=y phases=2 Linecode=1P_UG_AL_1/0_Brenau_2

New Line.l(r:p1rdm3313-p1rdt1688lv) Units=km Length=0.00943891 bus1=p1rdt1688lv.1.2 bus2=p1rdm3313.1.2 switch=n enabled=y phases=2 Linecode=1P_UG_AL_1/0_Brenau_2

New Line.l(r:p1rdt1689lv-p1rlv3278) Units=km Length=0.045962600000000006 bus1=p1rdt1689lv.1.2 bus2=p1rlv3278.1.2 switch=n enabled=y phases=2 Linecode=1P_UG_AL_1/0_Brenau_2

New Line.l(r:p1rdt1690lv-p1rlv3279) Units=km Length=0.00798196 bus1=p1rdt1690lv.1.2 bus2=p1rlv3279.1.2 switch=n enabled=y phases=2 Linecode=1P_OH_AL_2/0_Rucina_2

New Line.l(r:p1rdt1691lv-p1rlv3280) Units=km Length=0.0307044 bus1=p1rdt1691lv.1.2 bus2=p1rlv3280.1.2 switch=n enabled=y phases=2 Linecode=1P_OH_AL_4/0_Zuzara_2

New Line.l(r:p1rdt1692lv-p1rlv3281) Units=km Length=0.001 bus1=p1rdt1692lv.1.2 bus2=p1rlv3281.1.2 switch=n enabled=y phases=2 Linecode=1P_OH_AL_4_Periwinkle_2

New Line.l(r:p1rdt2110lv-p1rlv4158) Units=km Length=0.0451813 bus1=p1rdt2110lv.1.2 bus2=p1rlv4158.1.2 switch=n enabled=y phases=2 Linecode=1P_OH_AL_4/0_Zuzara_2

New Line.l(r:p1rdt2110lv-p1rlv4159) Units=km Length=0.016341 bus1=p1rdt2110lv.1.2 bus2=p1rlv4159.1.2 switch=n enabled=y phases=2 Linecode=1P_OH_AL_2/0_Rucina_2

New Line.l(r:p1rdt2110lv-p1rlv4160) Units=km Length=0.0290579 bus1=p1rdt2110lv.1.2 bus2=p1rlv4160.1.2 switch=n enabled=y phases=2 Linecode=1P_OH_AL_4/0_Zuzara_2

New Line.l(r:p1rdt2111lv-p1rlv4161) Units=km Length=0.001 bus1=p1rdt2111lv.1.2 bus2=p1rlv4161.1.2 switch=n enabled=y phases=2 Linecode=1P_OH_AL_4_Periwinkle_2

New Line.l(r:p1rdm6038-p1rlv6013) Units=km Length=0.018165 bus1=p1rdm6038.1.2 bus2=p1rlv6013.1.2 switch=n enabled=y phases=2 Linecode=1P_OH_AL_2/0_Rucina_2

New Line.l(r:p1rdm6037-p1rlv6012) Units=km Length=0.0208995 bus1=p1rdm6037.1.2 bus2=p1rlv6012.1.2 switch=n enabled=y phases=2 Linecode=1P_OH_AL_2/0_Rucina_2

New Line.l(r:p1rdm6037-p1rdm6038) Units=km Length=0.0443367 bus1=p1rdm6038.1.2 bus2=p1rdm6037.1.2 switch=n enabled=y phases=2 Linecode=1P_OH_AL_4/0_Zuzara_2

New Line.l(r:p1rdm6038-p1rdt2985lv) Units=km Length=0.0115375 bus1=p1rdt2985lv.1.2 bus2=p1rdm6038.1.2 switch=n enabled=y phases=2 Linecode=1P_OH_AL_2/0_Rucina_2

New Line.l(r:p1rdm6039-p1rlv6014) Units=km Length=0.014297700000000002 bus1=p1rdm6039.1.2 bus2=p1rlv6014.1.2 switch=n enabled=y phases=2 Linecode=1P_OH_AL_2/0_Rucina_2

New Line.l(r:p1rdm6040-p1rlv6015) Units=km Length=0.0444085 bus1=p1rdm6040.1.2 bus2=p1rlv6015.1.2 switch=n enabled=y phases=2 Linecode=1P_OH_AL_4/0_Zuzara_2

New Line.l(r:p1rdm6039-p1rdm6040) Units=km Length=0.0285327 bus1=p1rdm6039.1.2 bus2=p1rdm6040.1.2 switch=n enabled=y phases=2 Linecode=1P_OH_AL_4/0_Zuzara_2

New Line.l(r:p1rdm6039-p1rdt2985lv) Units=km Length=0.011530900000000002 bus1=p1rdt2985lv.1.2 bus2=p1rdm6039.1.2 switch=n enabled=y phases=2 Linecode=1P_OH_AL_2/0_Rucina_2

New Line.l(r:p1rdm6041-p1rlv6016) Units=km Length=0.026230200000000002 bus1=p1rdm6041.1.2 bus2=p1rlv6016.1.2 switch=n enabled=y phases=2 Linecode=1P_OH_AL_2/0_Rucina_2

New Line.l(r:p1rdm6041-p1rdt2986lv) Units=km Length=0.014147100000000001 bus1=p1rdt2986lv.1.2 bus2=p1rdm6041.1.2 switch=n enabled=y phases=2 Linecode=1P_OH_AL_2/0_Rucina_2

New Line.l(r:p1rdm6042-p1rlv6030) Units=km Length=0.00697764 bus1=p1rdm6042.1.2 bus2=p1rlv6030.1.2 switch=n enabled=y phases=2 Linecode=1P_OH_AL_2/0_Rucina_2

New Line.l(r:p1rdm6042-p1rdt2986lv) Units=km Length=0.0175229 bus1=p1rdt2986lv.1.2 bus2=p1rdm6042.1.2 switch=n enabled=y phases=2 Linecode=1P_OH_AL_2/0_Rucina_2

New Line.l(r:p1rdm6056-p1rlv6029) Units=km Length=0.0248542 bus1=p1rdm6056.1.2 bus2=p1rlv6029.1.2 switch=n enabled=y phases=2 Linecode=1P_OH_AL_2/0_Rucina_2

New Line.l(r:p1rdm6056-p1rdt2993lv) Units=km Length=0.0347936 bus1=p1rdt2993lv.1.2 bus2=p1rdm6056.1.2 switch=n enabled=y phases=2 Linecode=1P_OH_AL_4/0_Zuzara_2

New Line.l(r:p1rdm6057-p1rlv6031) Units=km Length=0.0331166 bus1=p1rdm6057.1.2 bus2=p1rlv6031.1.2 switch=n enabled=y phases=2 Linecode=1P_OH_AL_4/0_Zuzara_2

New Line.l(r:p1rdm6057-p1rdt2993lv) Units=km Length=0.0312703 bus1=p1rdt2993lv.1.2 bus2=p1rdm6057.1.2 switch=n enabled=y phases=2 Linecode=1P_OH_AL_4/0_Zuzara_2

New Line.l(r:p1rdm6060-p1rlv6035) Units=km Length=0.0284366 bus1=p1rdm6060.1.2 bus2=p1rlv6035.1.2 switch=n enabled=y phases=2 Linecode=1P_OH_AL_4/0_Zuzara_2

New Line.l(r:p1rdm6064-p1rlv6039) Units=km Length=0.0308719 bus1=p1rdm6064.1.2 bus2=p1rlv6039.1.2 switch=n enabled=y phases=2 Linecode=1P_OH_AL_4/0_Zuzara_2

New Line.l(r:p1rdm6059-p1rlv6034) Units=km Length=0.0458896 bus1=p1rdm6059.1.2 bus2=p1rlv6034.1.2 switch=n enabled=y phases=2 Linecode=1P_OH_AL_4/0_Zuzara_2

New Line.l(r:p1rdm6058-p1rlv6033) Units=km Length=0.0324756 bus1=p1rdm6058.1.2 bus2=p1rlv6033.1.2 switch=n enabled=y phases=2 Linecode=1P_OH_AL_4/0_Zuzara_2

New Line.l(r:p1rdm6058-p1rdm6059) Units=km Length=0.00824662 bus1=p1rdm6059.1.2 bus2=p1rdm6058.1.2 switch=n enabled=y phases=2 Linecode=1P_OH_AL_2/0_Rucina_2

New Line.l(r:p1rdm6059-p1rdm6064) Units=km Length=0.006285000000000001 bus1=p1rdm6064.1.2 bus2=p1rdm6059.1.2 switch=n enabled=y phases=2 Linecode=1P_OH_AL_2/0_Rucina_2

New Line.l(r:p1rdm6060-p1rdm6064) Units=km Length=0.0192105 bus1=p1rdm6060.1.2 bus2=p1rdm6064.1.2 switch=n enabled=y phases=2 Linecode=1P_OH_AL_2/0_Rucina_2

New Line.l(r:p1rdm6060-p1rdt2994lv) Units=km Length=0.0192105 bus1=p1rdt2994lv.1.2 bus2=p1rdm6060.1.2 switch=n enabled=y phases=2 Linecode=1P_OH_AL_2/0_Rucina_2

New Line.l(r:p1rdm6061-p1rlv6036) Units=km Length=0.04328030000000001 bus1=p1rdm6061.1.2 bus2=p1rlv6036.1.2 switch=n enabled=y phases=2 Linecode=1P_OH_AL_4/0_Zuzara_2

New Line.l(r:p1rdm6062-p1rlv6037) Units=km Length=0.0551786 bus1=p1rdm6062.1.2 bus2=p1rlv6037.1.2 switch=n enabled=y phases=2 Linecode=1P_OH_AL_4/0_Zuzara_2

New Line.l(r:p1rdm6063-p1rlv6038) Units=km Length=0.0160758 bus1=p1rdm6063.1.2 bus2=p1rlv6038.1.2 switch=n enabled=y phases=2 Linecode=1P_OH_AL_2/0_Rucina_2

New Line.l(r:p1rdm6062-p1rdm6063) Units=km Length=0.0195619 bus1=p1rdm6062.1.2 bus2=p1rdm6063.1.2 switch=n enabled=y phases=2 Linecode=1P_OH_AL_2/0_Rucina_2

New Line.l(r:p1rdm6061-p1rdm6062) Units=km Length=0.014803000000000002 bus1=p1rdm6061.1.2 bus2=p1rdm6062.1.2 switch=n enabled=y phases=2 Linecode=1P_OH_AL_2/0_Rucina_2

New Line.l(r:p1rdm6061-p1rdt2994lv) Units=km Length=0.014798300000000002 bus1=p1rdt2994lv.1.2 bus2=p1rdm6061.1.2 switch=n enabled=y phases=2 Linecode=1P_OH_AL_2/0_Rucina_2

New Line.l(r:p1rdt2998lv-p1rlv6051) Units=km Length=0.0547137 bus1=p1rdt2998lv.1.2 bus2=p1rlv6051.1.2 switch=n enabled=y phases=2 Linecode=1P_OH_AL_4/0_Zuzara_2

New Line.l(r:p1rdm6079-p1rlv6052) Units=km Length=0.05434350000000001 bus1=p1rdm6079.1.2 bus2=p1rlv6052.1.2 switch=n enabled=y phases=2 Linecode=1P_OH_AL_4/0_Zuzara_2

New Line.l(r:p1rdm6079-p1rdt2998lv) Units=km Length=0.019600800000000005 bus1=p1rdt2998lv.1.2 bus2=p1rdm6079.1.2 switch=n enabled=y phases=2 Linecode=1P_OH_AL_2/0_Rucina_2

New Line.l(r:p1rdt2999lv-p1rlv6053) Units=km Length=0.0541513 bus1=p1rdt2999lv.1.2 bus2=p1rlv6053.1.2 switch=n enabled=y phases=2 Linecode=1P_OH_AL_4/0_Zuzara_2

New Line.l(r:p1rdt3000lv-p1rlv6054) Units=km Length=0.0498838 bus1=p1rdt3000lv.1.2 bus2=p1rlv6054.1.2 switch=n enabled=y phases=2 Linecode=1P_OH_AL_4/0_Zuzara_2

New Line.l(r:p1rdt3001lv-p1rlv6055) Units=km Length=0.0275489 bus1=p1rdt3001lv.1.2 bus2=p1rlv6055.1.2 switch=n enabled=y phases=2 Linecode=1P_OH_AL_4/0_Zuzara_2

New Line.l(r:p1rdm6083-p1rlv6056) Units=km Length=0.0384251 bus1=p1rdm6083.1.2 bus2=p1rlv6056.1.2 switch=n enabled=y phases=2 Linecode=1P_OH_AL_4/0_Zuzara_2

New Line.l(r:p1rdm6083-p1rdt3001lv) Units=km Length=0.0121517 bus1=p1rdt3001lv.1.2 bus2=p1rdm6083.1.2 switch=n enabled=y phases=2 Linecode=1P_OH_AL_2/0_Rucina_2

New Line.l(r:p1rdt3002lv-p1rlv6057) Units=km Length=0.0226105 bus1=p1rdt3002lv.1.2 bus2=p1rlv6057.1.2 switch=n enabled=y phases=2 Linecode=1P_OH_AL_2/0_Rucina_2

New Line.l(r:p1rdt3003lv-p1rlv6058) Units=km Length=0.00342077 bus1=p1rdt3003lv.1.2 bus2=p1rlv6058.1.2 switch=n enabled=y phases=2 Linecode=1P_OH_AL_4_Periwinkle_2

New Line.l(r:p1rdt3004lv-p1rlv6059) Units=km Length=0.0587657 bus1=p1rdt3004lv.1.2 bus2=p1rlv6059.1.2 switch=n enabled=y phases=2 Linecode=1P_OH_AL_4/0_Zuzara_2

New Line.l(r:p1rdm6087-p1rlv6060) Units=km Length=0.08849290000000001 bus1=p1rdm6087.1.2 bus2=p1rlv6060.1.2 switch=n enabled=y phases=2 Linecode=1P_OH_AL_4/0_Zuzara_2

New Line.l(r:p1rdm6087-p1rdt3004lv) Units=km Length=0.018317300000000005 bus1=p1rdt3004lv.1.2 bus2=p1rdm6087.1.2 switch=n enabled=y phases=2 Linecode=1P_OH_AL_2/0_Rucina_2

New Line.l(r:p1rdt3005lv-p1rlv6061) Units=km Length=0.0150132 bus1=p1rdt3005lv.1.2 bus2=p1rlv6061.1.2 switch=n enabled=y phases=2 Linecode=1P_OH_AL_2/0_Rucina_2

New Line.l(r:p1rdt3006lv-p1rlv6062) Units=km Length=0.0761599 bus1=p1rdt3006lv.1.2 bus2=p1rlv6062.1.2 switch=n enabled=y phases=2 Linecode=1P_OH_AL_4/0_Zuzara_2

New Line.l(r:p1rdt3007lv-p1rlv6063) Units=km Length=0.0427041 bus1=p1rdt3007lv.1.2 bus2=p1rlv6063.1.2 switch=n enabled=y phases=2 Linecode=1P_OH_AL_4/0_Zuzara_2

New Line.l(r:p1rdt3011lv-p1rlv6071) Units=km Length=0.0400961 bus1=p1rdt3011lv.1.2 bus2=p1rlv6071.1.2 switch=n enabled=y phases=2 Linecode=1P_OH_AL_4/0_Zuzara_2

New Line.l(r:p1rdt3011lv-p1rlv6073) Units=km Length=0.00188876 bus1=p1rdt3011lv.1.2 bus2=p1rlv6073.1.2 switch=n enabled=y phases=2 Linecode=1P_OH_AL_4_Periwinkle_2

New Line.l(r:p1rdm6099-p1rlv6072) Units=km Length=0.0278482 bus1=p1rdm6099.1.2 bus2=p1rlv6072.1.2 switch=n enabled=y phases=2 Linecode=1P_OH_AL_4/0_Zuzara_2

New Line.l(r:p1rdm6099-p1rdt3011lv) Units=km Length=0.0101276 bus1=p1rdt3011lv.1.2 bus2=p1rdm6099.1.2 switch=n enabled=y phases=2 Linecode=1P_OH_AL_2/0_Rucina_2

New Line.l(r:p1rdt3012lv-p1rlv6074) Units=km Length=0.0188624 bus1=p1rdt3012lv.1.2 bus2=p1rlv6074.1.2 switch=n enabled=y phases=2 Linecode=1P_OH_AL_2/0_Rucina_2

New Line.l(r:p1rdt3013lv-p1rlv6076) Units=km Length=0.00259717 bus1=p1rdt3013lv.1.2 bus2=p1rlv6076.1.2 switch=n enabled=y phases=2 Linecode=1P_OH_AL_4_Periwinkle_2

New Line.l(r:p1rdm6102-p1rlv6075) Units=km Length=0.0227357 bus1=p1rdm6102.1.2 bus2=p1rlv6075.1.2 switch=n enabled=y phases=2 Linecode=1P_OH_AL_2/0_Rucina_2

New Line.l(r:p1rdm6102-p1rlv6077) Units=km Length=0.015184300000000001 bus1=p1rdm6102.1.2 bus2=p1rlv6077.1.2 switch=n enabled=y phases=2 Linecode=1P_OH_AL_2/0_Rucina_2

New Line.l(r:p1rdm6102-p1rdt3013lv) Units=km Length=0.013445700000000001 bus1=p1rdt3013lv.1.2 bus2=p1rdm6102.1.2 switch=n enabled=y phases=2 Linecode=1P_OH_AL_2/0_Rucina_2

New Line.l(r:p1rdm6105-p1rlv6079) Units=km Length=0.00507427 bus1=p1rdm6105.1.2 bus2=p1rlv6079.1.2 switch=n enabled=y phases=2 Linecode=1P_OH_AL_2/0_Rucina_2

New Line.l(r:p1rdm6105-p1rdt3013lv) Units=km Length=0.044807200000000005 bus1=p1rdt3013lv.1.2 bus2=p1rdm6105.1.2 switch=n enabled=y phases=2 Linecode=1P_OH_AL_4/0_Zuzara_2

New Line.l(r:p1rdt3014lv-p1rlv6080) Units=km Length=0.00888173 bus1=p1rdt3014lv.1.2 bus2=p1rlv6080.1.2 switch=n enabled=y phases=2 Linecode=1P_OH_AL_2/0_Rucina_2

New Line.l(r:p1rdm6106-p1rlv6078) Units=km Length=0.00367992 bus1=p1rdm6106.1.2 bus2=p1rlv6078.1.2 switch=n enabled=y phases=2 Linecode=1P_OH_AL_4_Periwinkle_2

New Line.l(r:p1rdm6106-p1rdt3014lv) Units=km Length=0.024567000000000002 bus1=p1rdt3014lv.1.2 bus2=p1rdm6106.1.2 switch=n enabled=y phases=2 Linecode=1P_OH_AL_2/0_Rucina_2

New Line.l(r:p1rdm6108-p1rlv6083) Units=km Length=0.0244489 bus1=p1rdm6108.1.2 bus2=p1rlv6083.1.2 switch=n enabled=y phases=2 Linecode=1P_OH_AL_2/0_Rucina_2

New Line.l(r:p1rdm6108-p1rdt3014lv) Units=km Length=0.0174785 bus1=p1rdt3014lv.1.2 bus2=p1rdm6108.1.2 switch=n enabled=y phases=2 Linecode=1P_OH_AL_2/0_Rucina_2

New Line.l(r:p1rdt3015lv-p1rlv6081) Units=km Length=0.02486 bus1=p1rdt3015lv.1.2 bus2=p1rlv6081.1.2 switch=n enabled=y phases=2 Linecode=1P_OH_AL_2/0_Rucina_2

New Line.l(r:p1rdt3015lv-p1rlv6084) Units=km Length=0.0140328 bus1=p1rdt3015lv.1.2 bus2=p1rlv6084.1.2 switch=n enabled=y phases=2 Linecode=1P_OH_AL_2/0_Rucina_2

New Line.l(r:p1rdt3016lv-p1rlv6082) Units=km Length=0.0645574 bus1=p1rdt3016lv.1.2 bus2=p1rlv6082.1.2 switch=n enabled=y phases=2 Linecode=1P_OH_AL_4/0_Zuzara_2

New Line.l(r:p1rdt3017lv-p1rlv6085) Units=km Length=0.00536106 bus1=p1rdt3017lv.1.2 bus2=p1rlv6085.1.2 switch=n enabled=y phases=2 Linecode=1P_OH_AL_2/0_Rucina_2

New Line.l(r:p1rdt3018lv-p1rlv6086) Units=km Length=0.0614747 bus1=p1rdt3018lv.1.2 bus2=p1rlv6086.1.2 switch=n enabled=y phases=2 Linecode=1P_OH_AL_4/0_Zuzara_2

New Line.l(r:p1rdt3019lv-p1rlv6088) Units=km Length=0.0231325 bus1=p1rdt3019lv.1.2 bus2=p1rlv6088.1.2 switch=n enabled=y phases=2 Linecode=1P_OH_AL_2/0_Rucina_2

New Line.l(r:p1rdm6114-p1rlv6087) Units=km Length=0.0469631 bus1=p1rdm6114.1.2 bus2=p1rlv6087.1.2 switch=n enabled=y phases=2 Linecode=1P_OH_AL_4/0_Zuzara_2

New Line.l(r:p1rdm6114-p1rdt3019lv) Units=km Length=0.0184245 bus1=p1rdt3019lv.1.2 bus2=p1rdm6114.1.2 switch=n enabled=y phases=2 Linecode=1P_OH_AL_2/0_Rucina_2

New Line.l(r:p1rdt3020lv-p1rlv6089) Units=km Length=0.035397700000000004 bus1=p1rdt3020lv.1.2 bus2=p1rlv6089.1.2 switch=n enabled=y phases=2 Linecode=1P_OH_AL_4/0_Zuzara_2

New Line.l(r:p1rdt3021lv-p1rlv6090) Units=km Length=0.04084030000000001 bus1=p1rdt3021lv.1.2 bus2=p1rlv6090.1.2 switch=n enabled=y phases=2 Linecode=1P_OH_AL_4/0_Zuzara_2

New Line.l(r:p1rdt3210lv-p1rlv6516) Units=km Length=0.0242967 bus1=p1rdt3210lv.1.2 bus2=p1rlv6516.1.2 switch=n enabled=y phases=2 Linecode=1P_OH_AL_2/0_Rucina_2

New Line.l(r:p1rdt3211lv-p1rlv6517) Units=km Length=0.0272723 bus1=p1rdt3211lv.1.2 bus2=p1rlv6517.1.2 switch=n enabled=y phases=2 Linecode=1P_OH_AL_4/0_Zuzara_2

New Line.l(r:p1rdt3212lv-p1rlv6518) Units=km Length=0.00465911 bus1=p1rdt3212lv.1.2 bus2=p1rlv6518.1.2 switch=n enabled=y phases=2 Linecode=1P_OH_AL_2/0_Rucina_2

New Line.l(r:p1rdt3221lv-p1rlv6530) Units=km Length=0.0942531 bus1=p1rdt3221lv.1.2 bus2=p1rlv6530.1.2 switch=n enabled=y phases=2 Linecode=1P_OH_AL_4/0_Zuzara_2

New Line.l(r:p1rdt3222lv-p1rlv6531) Units=km Length=0.019514600000000003 bus1=p1rdt3222lv.1.2 bus2=p1rlv6531.1.2 switch=n enabled=y phases=2 Linecode=1P_OH_AL_2/0_Rucina_2

New Line.l(r:p1rdt3222lv-p1rlv6533) Units=km Length=0.0135361 bus1=p1rdt3222lv.1.2 bus2=p1rlv6533.1.2 switch=n enabled=y phases=2 Linecode=1P_OH_AL_2/0_Rucina_2

New Line.l(r:p1rdt3223lv-p1rlv6532) Units=km Length=0.0340704 bus1=p1rdt3223lv.1.2 bus2=p1rlv6532.1.2 switch=n enabled=y phases=2 Linecode=1P_OH_AL_4/0_Zuzara_2

New Line.l(r:p1rdm6580-p1rlv6535) Units=km Length=0.0214206 bus1=p1rdm6580.1.2 bus2=p1rlv6535.1.2 switch=n enabled=y phases=2 Linecode=1P_OH_AL_2/0_Rucina_2

New Line.l(r:p1rdm6580-p1rdt3225lv) Units=km Length=0.011602900000000001 bus1=p1rdt3225lv.1.2 bus2=p1rdm6580.1.2 switch=n enabled=y phases=2 Linecode=1P_OH_AL_2/0_Rucina_2

New Line.l(r:p1rdm6581-p1rlv6541) Units=km Length=0.0259846 bus1=p1rdm6581.1.2 bus2=p1rlv6541.1.2 switch=n enabled=y phases=2 Linecode=1P_OH_AL_2/0_Rucina_2

New Line.l(r:p1rdm6581-p1rdt3225lv) Units=km Length=0.0151207 bus1=p1rdt3225lv.1.2 bus2=p1rdm6581.1.2 switch=n enabled=y phases=2 Linecode=1P_OH_AL_2/0_Rucina_2

New Line.l(r:p1rdt3226lv-p1rlv6538) Units=km Length=0.0158271 bus1=p1rdt3226lv.1.2 bus2=p1rlv6538.1.2 switch=n enabled=y phases=2 Linecode=1P_UG_AL_1/0_Brenau_2

New Line.l(r:p1rdm6583-p1rlv6537) Units=km Length=0.0367752 bus1=p1rdm6583.1.2 bus2=p1rlv6537.1.2 switch=n enabled=y phases=2 Linecode=1P_UG_AL_1/0_Brenau_2

New Line.l(r:p1rdm6582-p1rlv6536) Units=km Length=0.0460084 bus1=p1rdm6582.1.2 bus2=p1rlv6536.1.2 switch=n enabled=y phases=2 Linecode=1P_UG_AL_1/0_Brenau_2

New Line.l(r:p1rdm6586-p1rlv6540) Units=km Length=0.0187238 bus1=p1rdm6586.1.2 bus2=p1rlv6540.1.2 switch=n enabled=y phases=2 Linecode=1P_UG_AL_1/0_Brenau_2

New Line.l(r:p1rdm6585-p1rlv6539) Units=km Length=0.0211752 bus1=p1rdm6585.1.2 bus2=p1rlv6539.1.2 switch=n enabled=y phases=2 Linecode=1P_UG_AL_1/0_Brenau_2

New Line.l(r:p1rdm6585-p1rdm6586) Units=km Length=0.018152500000000002 bus1=p1rdm6586.1.2 bus2=p1rdm6585.1.2 switch=n enabled=y phases=2 Linecode=1P_UG_AL_1/0_Brenau_2

New Line.l(r:p1rdm6582-p1rdm6586) Units=km Length=0.0178188 bus1=p1rdm6582.1.2 bus2=p1rdm6586.1.2 switch=n enabled=y phases=2 Linecode=1P_UG_AL_1/0_Brenau_2

New Line.l(r:p1rdm6582-p1rdm6583) Units=km Length=0.0089144 bus1=p1rdm6583.1.2 bus2=p1rdm6582.1.2 switch=n enabled=y phases=2 Linecode=1P_UG_AL_1/0_Brenau_2

New Line.l(r:p1rdm6583-p1rdt3226lv) Units=km Length=0.0089044 bus1=p1rdt3226lv.1.2 bus2=p1rdm6583.1.2 switch=n enabled=y phases=2 Linecode=1P_UG_AL_1/0_Brenau_2

New Line.l(r:p1rdm6587-p1rlv6549) Units=km Length=0.0885853 bus1=p1rdm6587.1.2 bus2=p1rlv6549.1.2 switch=n enabled=y phases=2 Linecode=1P_UG_AL_1/0_Brenau_2

New Line.l(r:p1rdm6587-p1rlv6553) Units=km Length=0.0138318 bus1=p1rdm6587.1.2 bus2=p1rlv6553.1.2 switch=n enabled=y phases=2 Linecode=1P_UG_AL_1/0_Brenau_2

New Line.l(r:p1rdm6587-p1rlv6554) Units=km Length=0.0155564 bus1=p1rdm6587.1.2 bus2=p1rlv6554.1.2 switch=n enabled=y phases=2 Linecode=1P_UG_AL_1/0_Brenau_2

New Line.l(r:p1rdm6590-p1rlv6552) Units=km Length=0.00923522 bus1=p1rdm6590.1.2 bus2=p1rlv6552.1.2 switch=n enabled=y phases=2 Linecode=1P_UG_AL_1/0_Brenau_2

New Line.l(r:p1rdm6588-p1rlv6550) Units=km Length=0.08864070000000002 bus1=p1rdm6588.1.2 bus2=p1rlv6550.1.2 switch=n enabled=y phases=2 Linecode=1P_UG_AL_1/0_Brenau_2

New Line.l(r:p1rdm6588-p1rlv6551) Units=km Length=0.0368126 bus1=p1rdm6588.1.2 bus2=p1rlv6551.1.2 switch=n enabled=y phases=2 Linecode=1P_UG_AL_1/0_Brenau_2

New Line.l(r:p1rdm6588-p1rdm6590) Units=km Length=0.00999025 bus1=p1rdm6590.1.2 bus2=p1rdm6588.1.2 switch=n enabled=y phases=2 Linecode=1P_UG_AL_1/0_Brenau_2

New Line.l(r:p1rdm6587-p1rdm6590) Units=km Length=0.00890409 bus1=p1rdm6587.1.2 bus2=p1rdm6590.1.2 switch=n enabled=y phases=2 Linecode=1P_UG_AL_1/0_Brenau_2

New Line.l(r:p1rdm6587-p1rdt3226lv) Units=km Length=0.0178288 bus1=p1rdt3226lv.1.2 bus2=p1rdm6587.1.2 switch=n enabled=y phases=2 Linecode=1P_UG_AL_4/0_Sweetbriar_2

New Line.l(r:p1rdt3227lv-p1rlv6548) Units=km Length=0.108313 bus1=p1rdt3227lv.1.2 bus2=p1rlv6548.1.2 switch=n enabled=y phases=2 Linecode=1P_OH_AL_4/0_Zuzara_2

New Line.l(r:p1rdm6593-p1rlv6542) Units=km Length=0.054184500000000003 bus1=p1rdm6593.1.2 bus2=p1rlv6542.1.2 switch=n enabled=y phases=2 Linecode=1P_OH_AL_4/0_Zuzara_2

New Line.l(r:p1rdm6593-p1rlv6543) Units=km Length=0.024515800000000004 bus1=p1rdm6593.1.2 bus2=p1rlv6543.1.2 switch=n enabled=y phases=2 Linecode=1P_OH_AL_2/0_Rucina_2

New Line.l(r:p1rdm6593-p1rlv6544) Units=km Length=0.0874252 bus1=p1rdm6593.1.2 bus2=p1rlv6544.1.2 switch=n enabled=y phases=2 Linecode=1P_OH_AL_4/0_Zuzara_2

New Line.l(r:p1rdm6593-p1rdt3227lv) Units=km Length=0.0191203 bus1=p1rdt3227lv.1.2 bus2=p1rdm6593.1.2 switch=n enabled=y phases=2 Linecode=1P_OH_AL_2/0_Rucina_2

New Line.l(r:p1rdm6597-p1rlv6546) Units=km Length=0.0900669 bus1=p1rdm6597.1.2 bus2=p1rlv6546.1.2 switch=n enabled=y phases=2 Linecode=1P_OH_AL_4/0_Zuzara_2

New Line.l(r:p1rdm6596-p1rlv6545) Units=km Length=0.0301179 bus1=p1rdm6596.1.2 bus2=p1rlv6545.1.2 switch=n enabled=y phases=2 Linecode=1P_OH_AL_4/0_Zuzara_2

New Line.l(r:p1rdm6596-p1rlv6547) Units=km Length=0.06451730000000001 bus1=p1rdm6596.1.2 bus2=p1rlv6547.1.2 switch=n enabled=y phases=2 Linecode=1P_OH_AL_4/0_Zuzara_2

New Line.l(r:p1rdm6596-p1rdm6597) Units=km Length=0.0191203 bus1=p1rdm6597.1.2 bus2=p1rdm6596.1.2 switch=n enabled=y phases=2 Linecode=1P_OH_AL_2/0_Rucina_2

New Line.l(r:p1rdm6597-p1rdt3227lv) Units=km Length=0.0191202 bus1=p1rdt3227lv.1.2 bus2=p1rdm6597.1.2 switch=n enabled=y phases=2 Linecode=1P_OH_AL_2/0_Rucina_2

New Line.l(r:p1rdt3235lv-p1rlv6565) Units=km Length=0.027517400000000004 bus1=p1rdt3235lv.1.2 bus2=p1rlv6565.1.2 switch=n enabled=y phases=2 Linecode=1P_OH_AL_4/0_Zuzara_2

New Line.l(r:p1rdm6617-p1rlv6566) Units=km Length=0.0380545 bus1=p1rdm6617.1.2 bus2=p1rlv6566.1.2 switch=n enabled=y phases=2 Linecode=1P_OH_AL_4/0_Zuzara_2

New Line.l(r:p1rdm6617-p1rdt3235lv) Units=km Length=0.015120800000000002 bus1=p1rdt3235lv.1.2 bus2=p1rdm6617.1.2 switch=n enabled=y phases=2 Linecode=1P_OH_AL_2/0_Rucina_2

New Line.l(r:p1rdm6618-p1rlv6567) Units=km Length=0.0248496 bus1=p1rdm6618.1.2 bus2=p1rlv6567.1.2 switch=n enabled=y phases=2 Linecode=1P_UG_AL_1/0_Brenau_2

New Line.l(r:p1rdm6618-p1rdt3235lv) Units=km Length=0.0302415 bus1=p1rdt3235lv.1.2 bus2=p1rdm6618.1.2 switch=n enabled=y phases=2 Linecode=1P_OH_AL_4/0_Zuzara_2

New Line.l(r:p1rdt3236lv-p1rlv6568) Units=km Length=0.00829001 bus1=p1rdt3236lv.1.2 bus2=p1rlv6568.1.2 switch=n enabled=y phases=2 Linecode=1P_OH_AL_2/0_Rucina_2

New Line.l(r:p1rdt3236lv-p1rlv6569) Units=km Length=0.00107564 bus1=p1rdt3236lv.1.2 bus2=p1rlv6569.1.2 switch=n enabled=y phases=2 Linecode=1P_OH_AL_4_Periwinkle_2

New Line.l(r:p1rdt3236lv-p1rlv6570) Units=km Length=0.00936053 bus1=p1rdt3236lv.1.2 bus2=p1rlv6570.1.2 switch=n enabled=y phases=2 Linecode=1P_OH_AL_2/0_Rucina_2

New Line.l(r:p1rdt3237lv-p1rlv6571) Units=km Length=0.0169584 bus1=p1rdt3237lv.1.2 bus2=p1rlv6571.1.2 switch=n enabled=y phases=2 Linecode=1P_OH_AL_2/0_Rucina_2

New Line.l(r:p1rdt3237lv-p1rlv6572) Units=km Length=0.0169584 bus1=p1rdt3237lv.1.2 bus2=p1rlv6572.1.2 switch=n enabled=y phases=2 Linecode=1P_OH_AL_2/0_Rucina_2

New Line.l(r:p1rdt3238lv-p1rlv6573) Units=km Length=0.001 bus1=p1rdt3238lv.1.2 bus2=p1rlv6573.1.2 switch=n enabled=y phases=2 Linecode=1P_OH_AL_4_Periwinkle_2

New Line.l(r:p1rdt3239lv-p1rlv6574) Units=km Length=0.0324133 bus1=p1rdt3239lv.1.2 bus2=p1rlv6574.1.2 switch=n enabled=y phases=2 Linecode=1P_OH_AL_4/0_Zuzara_2

New Line.l(r:p1rdt3240lv-p1rlv6576) Units=km Length=0.0148121 bus1=p1rdt3240lv.1.2 bus2=p1rlv6576.1.2 switch=n enabled=y phases=2 Linecode=1P_OH_AL_2/0_Rucina_2

New Line.l(r:p1rdm6626-p1rlv6575) Units=km Length=0.00789178 bus1=p1rdm6626.1.2 bus2=p1rlv6575.1.2 switch=n enabled=y phases=2 Linecode=1P_OH_AL_2/0_Rucina_2

New Line.l(r:p1rdm6626-p1rdt3240lv) Units=km Length=0.0129216 bus1=p1rdt3240lv.1.2 bus2=p1rdm6626.1.2 switch=n enabled=y phases=2 Linecode=1P_OH_AL_2/0_Rucina_2

New Line.l(r:p1rdt3241lv-p1rlv6577) Units=km Length=0.00888974 bus1=p1rdt3241lv.1.2 bus2=p1rlv6577.1.2 switch=n enabled=y phases=2 Linecode=1P_OH_AL_2/0_Rucina_2

New Line.l(r:p1rdt3242lv-p1rlv6578) Units=km Length=0.0431048 bus1=p1rdt3242lv.1.2 bus2=p1rlv6578.1.2 switch=n enabled=y phases=2 Linecode=1P_OH_AL_4/0_Zuzara_2

New Line.l(r:p1rdt3242lv-p1rlv6579) Units=km Length=0.06226400000000001 bus1=p1rdt3242lv.1.2 bus2=p1rlv6579.1.2 switch=n enabled=y phases=2 Linecode=1P_OH_AL_4/0_Zuzara_2

New Line.l(r:p1rdt3242lv-p1rlv6585) Units=km Length=0.0382046 bus1=p1rdt3242lv.1.2 bus2=p1rlv6585.1.2 switch=n enabled=y phases=2 Linecode=1P_OH_AL_4/0_Zuzara_2

New Line.l(r:p1rdm6632-p1rlv7376) Units=km Length=0.0531417 bus1=p1rdm6632.1.2 bus2=p1rlv7376.1.2 switch=n enabled=y phases=2 Linecode=1P_OH_AL_4/0_Zuzara_2

New Line.l(r:p1rdm6632-p1rdt3242lv) Units=km Length=0.0311294 bus1=p1rdt3242lv.1.2 bus2=p1rdm6632.1.2 switch=n enabled=y phases=2 Linecode=1P_OH_AL_4/0_Zuzara_2

New Line.l(r:p1rdt3243lv-p1rlv6582) Units=km Length=0.0198318 bus1=p1rdt3243lv.1.2 bus2=p1rlv6582.1.2 switch=n enabled=y phases=2 Linecode=1P_OH_AL_2/0_Rucina_2

New Line.l(r:p1rdm6633-p1rlv6580) Units=km Length=0.0401824 bus1=p1rdm6633.1.2 bus2=p1rlv6580.1.2 switch=n enabled=y phases=2 Linecode=1P_OH_AL_4/0_Zuzara_2

New Line.l(r:p1rdm6633-p1rdt3243lv) Units=km Length=0.0353557 bus1=p1rdt3243lv.1.2 bus2=p1rdm6633.1.2 switch=n enabled=y phases=2 Linecode=1P_OH_AL_4/0_Zuzara_2

New Line.l(r:p1rdm6635-p1rlv6583) Units=km Length=0.00461532 bus1=p1rdm6635.1.2 bus2=p1rlv6583.1.2 switch=n enabled=y phases=2 Linecode=1P_OH_AL_2/0_Rucina_2

New Line.l(r:p1rdm6636-p1rlv6584) Units=km Length=0.00197363 bus1=p1rdm6636.1.2 bus2=p1rlv6584.1.2 switch=n enabled=y phases=2 Linecode=1P_OH_AL_4_Periwinkle_2

New Line.l(r:p1rdm6635-p1rdm6636) Units=km Length=0.019731 bus1=p1rdm6635.1.2 bus2=p1rdm6636.1.2 switch=n enabled=y phases=2 Linecode=1P_OH_AL_2/0_Rucina_2

New Line.l(r:p1rdm6635-p1rdt3243lv) Units=km Length=0.017682800000000002 bus1=p1rdt3243lv.1.2 bus2=p1rdm6635.1.2 switch=n enabled=y phases=2 Linecode=1P_OH_AL_2/0_Rucina_2

New Line.l(r:p1rdt3244lv-p1rlv6581) Units=km Length=0.040796 bus1=p1rdt3244lv.1.2 bus2=p1rlv6581.1.2 switch=n enabled=y phases=2 Linecode=1P_OH_AL_4/0_Zuzara_2

New Line.l(r:p1rdt3245lv-p1rlv6586) Units=km Length=0.0666892 bus1=p1rdt3245lv.1.2 bus2=p1rlv6586.1.2 switch=n enabled=y phases=2 Linecode=1P_OH_AL_4/0_Zuzara_2

New Line.l(r:p1rdt3245lv-p1rlv6587) Units=km Length=0.0959632 bus1=p1rdt3245lv.1.2 bus2=p1rlv6587.1.2 switch=n enabled=y phases=2 Linecode=1P_OH_AL_4/0_Zuzara_2

New Line.l(r:p1rdt3246lv-p1rlv6588) Units=km Length=0.001 bus1=p1rdt3246lv.1.2 bus2=p1rlv6588.1.2 switch=n enabled=y phases=2 Linecode=1P_OH_AL_4_Periwinkle_2

New Line.l(r:p1rdt3247lv-p1rlv6589) Units=km Length=0.061438000000000006 bus1=p1rdt3247lv.1.2 bus2=p1rlv6589.1.2 switch=n enabled=y phases=2 Linecode=1P_OH_AL_4/0_Zuzara_2

New Line.l(r:p1rdt3247lv-p1rlv6590) Units=km Length=0.0817819 bus1=p1rdt3247lv.1.2 bus2=p1rlv6590.1.2 switch=n enabled=y phases=2 Linecode=1P_OH_AL_4/0_Zuzara_2

New Line.l(r:p1rdt3248lv-p1rlv6591) Units=km Length=0.0323081 bus1=p1rdt3248lv.1.2 bus2=p1rlv6591.1.2 switch=n enabled=y phases=2 Linecode=1P_OH_AL_4/0_Zuzara_2

New Line.l(r:p1rdt3249lv-p1rlv6592) Units=km Length=0.0451779 bus1=p1rdt3249lv.1.2 bus2=p1rlv6592.1.2 switch=n enabled=y phases=2 Linecode=1P_OH_AL_4/0_Zuzara_2

New Line.l(r:p1rdt3250lv-p1rlv6593) Units=km Length=0.0459193 bus1=p1rdt3250lv.1.2 bus2=p1rlv6593.1.2 switch=n enabled=y phases=2 Linecode=1P_OH_AL_4/0_Zuzara_2

New Line.l(r:p1rdt3251lv-p1rlv6594) Units=km Length=0.0547126 bus1=p1rdt3251lv.1.2 bus2=p1rlv6594.1.2 switch=n enabled=y phases=2 Linecode=1P_OH_AL_4/0_Zuzara_2

New Line.l(r:p1rdt3252lv-p1rlv6595) Units=km Length=0.0820099 bus1=p1rdt3252lv.1.2 bus2=p1rlv6595.1.2 switch=n enabled=y phases=2 Linecode=1P_OH_AL_4/0_Zuzara_2

New Line.l(r:p1rdt3254lv-p1rlv6598) Units=km Length=0.02323 bus1=p1rdt3254lv.1.2 bus2=p1rlv6598.1.2 switch=n enabled=y phases=2 Linecode=1P_OH_AL_2/0_Rucina_2

New Line.l(r:p1rdm6650-p1rlv6597) Units=km Length=0.0238881 bus1=p1rdm6650.1.2 bus2=p1rlv6597.1.2 switch=n enabled=y phases=2 Linecode=1P_OH_AL_2/0_Rucina_2

New Line.l(r:p1rdm6650-p1rdt3254lv) Units=km Length=0.039082200000000004 bus1=p1rdt3254lv.1.2 bus2=p1rdm6650.1.2 switch=n enabled=y phases=2 Linecode=1P_OH_AL_4/0_Zuzara_2

New Line.l(r:p1rdm6652-p1rlv6599) Units=km Length=0.0301712 bus1=p1rdm6652.1.2 bus2=p1rlv6599.1.2 switch=n enabled=y phases=2 Linecode=1P_OH_AL_4/0_Zuzara_2

New Line.l(r:p1rdm6652-p1rlv6600) Units=km Length=0.0107236 bus1=p1rdm6652.1.2 bus2=p1rlv6600.1.2 switch=n enabled=y phases=2 Linecode=1P_OH_AL_2/0_Rucina_2

New Line.l(r:p1rdm6652-p1rdt3254lv) Units=km Length=0.0159451 bus1=p1rdt3254lv.1.2 bus2=p1rdm6652.1.2 switch=n enabled=y phases=2 Linecode=1P_OH_AL_2/0_Rucina_2

New Line.l(r:p1rdm6654-p1rlv6601) Units=km Length=0.027998600000000002 bus1=p1rdm6654.1.2 bus2=p1rlv6601.1.2 switch=n enabled=y phases=2 Linecode=1P_OH_AL_4/0_Zuzara_2

New Line.l(r:p1rdm6654-p1rlv6603) Units=km Length=0.0358346 bus1=p1rdm6654.1.2 bus2=p1rlv6603.1.2 switch=n enabled=y phases=2 Linecode=1P_OH_AL_4/0_Zuzara_2

New Line.l(r:p1rdm6654-p1rdt3255lv) Units=km Length=0.0196461 bus1=p1rdt3255lv.1.2 bus2=p1rdm6654.1.2 switch=n enabled=y phases=2 Linecode=1P_OH_AL_2/0_Rucina_2

New Line.l(r:p1rdm6655-p1rlv6602) Units=km Length=0.007070450000000001 bus1=p1rdm6655.1.2 bus2=p1rlv6602.1.2 switch=n enabled=y phases=2 Linecode=1P_OH_AL_2/0_Rucina_2

New Line.l(r:p1rdm6655-p1rdt3255lv) Units=km Length=0.071953 bus1=p1rdt3255lv.1.2 bus2=p1rdm6655.1.2 switch=n enabled=y phases=2 Linecode=1P_OH_AL_4/0_Zuzara_2

New Line.l(r:p1rdm6657-p1rlv6604) Units=km Length=0.054441 bus1=p1rdm6657.1.2 bus2=p1rlv6604.1.2 switch=n enabled=y phases=2 Linecode=1P_UG_AL_1/0_Brenau_2

New Line.l(r:p1rdm6657-p1rdt3256lv) Units=km Length=0.0151789 bus1=p1rdt3256lv.1.2 bus2=p1rdm6657.1.2 switch=n enabled=y phases=2 Linecode=1P_UG_AL_1/0_Brenau_2

New Line.l(r:p1rdm6659-p1rlv6608) Units=km Length=0.00544742 bus1=p1rdm6659.1.2 bus2=p1rlv6608.1.2 switch=n enabled=y phases=2 Linecode=1P_UG_AL_4/0_Sweetbriar_2

New Line.l(r:p1rdm6658-p1rlv6607) Units=km Length=0.0348734 bus1=p1rdm6658.1.2 bus2=p1rlv6607.1.2 switch=n enabled=y phases=2 Linecode=1P_UG_AL_1/0_Brenau_2

New Line.l(r:p1rdm6658-p1rdm6659) Units=km Length=0.00693666 bus1=p1rdm6659.1.2 bus2=p1rdm6658.1.2 switch=n enabled=y phases=2 Linecode=1P_UG_AL_1/0_Brenau_2

New Line.l(r:p1rdm6659-p1rdt3256lv) Units=km Length=0.013871000000000001 bus1=p1rdt3256lv.1.2 bus2=p1rdm6659.1.2 switch=n enabled=y phases=2 Linecode=1P_UG_AL_4/0_Sweetbriar_2

New Line.l(r:p1rdt3257lv-p1rlv6605) Units=km Length=0.0123576 bus1=p1rdt3257lv.1.2 bus2=p1rlv6605.1.2 switch=n enabled=y phases=2 Linecode=1P_UG_AL_1/0_Brenau_2

New Line.l(r:p1rdt3271lv-p1rlv6631) Units=km Length=0.0450229 bus1=p1rdt3271lv.1.2 bus2=p1rlv6631.1.2 switch=n enabled=y phases=2 Linecode=1P_UG_AL_4/0_Sweetbriar_2

New Line.l(r:p1rdt3272lv-p1rlv6632) Units=km Length=0.054647 bus1=p1rdt3272lv.1.2 bus2=p1rlv6632.1.2 switch=n enabled=y phases=2 Linecode=1P_OH_AL_4/0_Zuzara_2

New Line.l(r:p1rdm6686-p1rlv6633) Units=km Length=0.011419200000000001 bus1=p1rdm6686.1.2 bus2=p1rlv6633.1.2 switch=n enabled=y phases=2 Linecode=1P_OH_AL_2/0_Rucina_2

New Line.l(r:p1rdm6686-p1rdt3273lv) Units=km Length=0.026883800000000003 bus1=p1rdt3273lv.1.2 bus2=p1rdm6686.1.2 switch=n enabled=y phases=2 Linecode=1P_OH_AL_2/0_Rucina_2

New Line.l(r:p1rdm6687-p1rlv6635) Units=km Length=0.04791390000000001 bus1=p1rdm6687.1.2 bus2=p1rlv6635.1.2 switch=n enabled=y phases=2 Linecode=1P_UG_AL_1/0_Brenau_2

New Line.l(r:p1rdm6687-p1rdt3273lv) Units=km Length=0.0179204 bus1=p1rdt3273lv.1.2 bus2=p1rdm6687.1.2 switch=n enabled=y phases=2 Linecode=1P_UG_AL_1/0_Brenau_2

New Line.l(r:p1rdm6689-p1rlv6636) Units=km Length=0.09003460000000002 bus1=p1rdm6689.1.2 bus2=p1rlv6636.1.2 switch=n enabled=y phases=2 Linecode=1P_UG_AL_1/0_Brenau_2

New Line.l(r:p1rdm6688-p1rlv6634) Units=km Length=0.0375923 bus1=p1rdm6688.1.2 bus2=p1rlv6634.1.2 switch=n enabled=y phases=2 Linecode=1P_UG_AL_1/0_Brenau_2

New Line.l(r:p1rdm6688-p1rdm6689) Units=km Length=0.0328532 bus1=p1rdm6689.1.2 bus2=p1rdm6688.1.2 switch=n enabled=y phases=2 Linecode=1P_UG_AL_1/0_Brenau_2

New Line.l(r:p1rdm6689-p1rdt3274lv) Units=km Length=0.0180507 bus1=p1rdt3274lv.1.2 bus2=p1rdm6689.1.2 switch=n enabled=y phases=2 Linecode=1P_UG_AL_1/0_Brenau_2

New Line.l(r:p1rdm6690-p1rlv6654) Units=km Length=0.0116629 bus1=p1rdm6690.1.2 bus2=p1rlv6654.1.2 switch=n enabled=y phases=2 Linecode=1P_UG_AL_1/0_Brenau_2

New Line.l(r:p1rdm6691-p1rlv6655) Units=km Length=0.00872917 bus1=p1rdm6691.1.2 bus2=p1rlv6655.1.2 switch=n enabled=y phases=2 Linecode=1P_UG_AL_1/0_Brenau_2

New Line.l(r:p1rdm6690-p1rdm6691) Units=km Length=0.0246253 bus1=p1rdm6690.1.2 bus2=p1rdm6691.1.2 switch=n enabled=y phases=2 Linecode=1P_UG_AL_1/0_Brenau_2

New Line.l(r:p1rdm6690-p1rdt3274lv) Units=km Length=0.018052 bus1=p1rdt3274lv.1.2 bus2=p1rdm6690.1.2 switch=n enabled=y phases=2 Linecode=1P_UG_AL_1/0_Brenau_2

New Line.l(r:p1rdt3275lv-p1rlv6638) Units=km Length=0.054805900000000005 bus1=p1rdt3275lv.1.2 bus2=p1rlv6638.1.2 switch=n enabled=y phases=2 Linecode=1P_OH_AL_4/0_Zuzara_2

New Line.l(r:p1rdm6692-p1rlv6637) Units=km Length=0.0652611 bus1=p1rdm6692.1.2 bus2=p1rlv6637.1.2 switch=n enabled=y phases=2 Linecode=1P_OH_AL_4/0_Zuzara_2

New Line.l(r:p1rdm6692-p1rdt3275lv) Units=km Length=0.0137009 bus1=p1rdt3275lv.1.2 bus2=p1rdm6692.1.2 switch=n enabled=y phases=2 Linecode=1P_OH_AL_2/0_Rucina_2

New Line.l(r:p1rdt3276lv-p1rlv6640) Units=km Length=0.0204101 bus1=p1rdt3276lv.1.2 bus2=p1rlv6640.1.2 switch=n enabled=y phases=2 Linecode=1P_OH_AL_2/0_Rucina_2

New Line.l(r:p1rdm6694-p1rlv6639) Units=km Length=0.013836400000000002 bus1=p1rdm6694.1.2 bus2=p1rlv6639.1.2 switch=n enabled=y phases=2 Linecode=1P_OH_AL_2/0_Rucina_2

New Line.l(r:p1rdm6694-p1rdt3276lv) Units=km Length=0.019811100000000005 bus1=p1rdt3276lv.1.2 bus2=p1rdm6694.1.2 switch=n enabled=y phases=2 Linecode=1P_OH_AL_2/0_Rucina_2

New Line.l(r:p1rdm6696-p1rlv6641) Units=km Length=0.016167 bus1=p1rdm6696.1.2 bus2=p1rlv6641.1.2 switch=n enabled=y phases=2 Linecode=1P_OH_AL_2/0_Rucina_2

New Line.l(r:p1rdm6696-p1rdt3276lv) Units=km Length=0.0198012 bus1=p1rdt3276lv.1.2 bus2=p1rdm6696.1.2 switch=n enabled=y phases=2 Linecode=1P_OH_AL_2/0_Rucina_2

New Line.l(r:p1rdt3277lv-p1rlv6642) Units=km Length=0.0167387 bus1=p1rdt3277lv.1.2 bus2=p1rlv6642.1.2 switch=n enabled=y phases=2 Linecode=1P_OH_AL_2/0_Rucina_2

New Line.l(r:p1rdt3277lv-p1rlv6643) Units=km Length=0.0427844 bus1=p1rdt3277lv.1.2 bus2=p1rlv6643.1.2 switch=n enabled=y phases=2 Linecode=1P_OH_AL_4/0_Zuzara_2

New Line.l(r:p1rdt3278lv-p1rlv6644) Units=km Length=0.0502836 bus1=p1rdt3278lv.1.2 bus2=p1rlv6644.1.2 switch=n enabled=y phases=2 Linecode=1P_UG_AL_1/0_Brenau_2

New Line.l(r:p1rdt3278lv-p1rlv6645) Units=km Length=0.0291739 bus1=p1rdt3278lv.1.2 bus2=p1rlv6645.1.2 switch=n enabled=y phases=2 Linecode=1P_UG_AL_1/0_Brenau_2

New Line.l(r:p1rdt3279lv-p1rlv6646) Units=km Length=0.0037200500000000004 bus1=p1rdt3279lv.1.2 bus2=p1rlv6646.1.2 switch=n enabled=y phases=2 Linecode=1P_OH_AL_4_Periwinkle_2

New Line.l(r:p1rdt3279lv-p1rlv6647) Units=km Length=0.045602800000000006 bus1=p1rdt3279lv.1.2 bus2=p1rlv6647.1.2 switch=n enabled=y phases=2 Linecode=1P_OH_AL_4/0_Zuzara_2

New Line.l(r:p1rdt3280lv-p1rlv9234) Units=km Length=0.053627400000000006 bus1=p1rdt3280lv.1.2 bus2=p1rlv9234.1.2 switch=n enabled=y phases=2 Linecode=1P_OH_AL_4/0_Zuzara_2

New Line.l(r:p1rdm6704-p1rlv9231) Units=km Length=0.0285654 bus1=p1rdm6704.1.2 bus2=p1rlv9231.1.2 switch=n enabled=y phases=2 Linecode=1P_OH_AL_4/0_Zuzara_2

New Line.l(r:p1rdm6705-p1rlv9232) Units=km Length=0.0140512 bus1=p1rdm6705.1.2 bus2=p1rlv9232.1.2 switch=n enabled=y phases=2 Linecode=1P_OH_AL_2/0_Rucina_2

New Line.l(r:p1rdm6704-p1rdm6705) Units=km Length=0.0149097 bus1=p1rdm6704.1.2 bus2=p1rdm6705.1.2 switch=n enabled=y phases=2 Linecode=1P_OH_AL_2/0_Rucina_2

New Line.l(r:p1rdm6704-p1rdt3280lv) Units=km Length=0.0148991 bus1=p1rdt3280lv.1.2 bus2=p1rdm6704.1.2 switch=n enabled=y phases=2 Linecode=1P_OH_AL_2/0_Rucina_2

New Line.l(r:p1rdm6706-p1rlv9233) Units=km Length=0.027333 bus1=p1rdm6706.1.2 bus2=p1rlv9233.1.2 switch=n enabled=y phases=2 Linecode=1P_OH_AL_4/0_Zuzara_2

New Line.l(r:p1rdm6703-p1rlv6648) Units=km Length=0.00577631 bus1=p1rdm6703.1.2 bus2=p1rlv6648.1.2 switch=n enabled=y phases=2 Linecode=1P_UG_AL_1/0_Brenau_2

New Line.l(r:p1rdm6703-p1rdm6706) Units=km Length=0.0353809 bus1=p1rdm6706.1.2 bus2=p1rdm6703.1.2 switch=n enabled=y phases=2 Linecode=1P_OH_AL_4/0_Zuzara_2

New Line.l(r:p1rdm6706-p1rdt3280lv) Units=km Length=0.0202502 bus1=p1rdt3280lv.1.2 bus2=p1rdm6706.1.2 switch=n enabled=y phases=2 Linecode=1P_OH_AL_2/0_Rucina_2

New Line.l(r:p1rdt3281lv-p1rlv6649) Units=km Length=0.0814845 bus1=p1rdt3281lv.1.2 bus2=p1rlv6649.1.2 switch=n enabled=y phases=2 Linecode=1P_OH_AL_4/0_Zuzara_2

New Line.l(r:p1rdm6709-p1rlv6650) Units=km Length=0.00972988 bus1=p1rdm6709.1.2 bus2=p1rlv6650.1.2 switch=n enabled=y phases=2 Linecode=1P_UG_AL_1/0_Brenau_2

New Line.l(r:p1rdm6709-p1rdt3282lv) Units=km Length=0.0166905 bus1=p1rdt3282lv.1.2 bus2=p1rdm6709.1.2 switch=n enabled=y phases=2 Linecode=1P_UG_AL_1/0_Brenau_2

New Line.l(r:p1rdm6710-p1rlv6651) Units=km Length=0.0181303 bus1=p1rdm6710.1.2 bus2=p1rlv6651.1.2 switch=n enabled=y phases=2 Linecode=1P_UG_AL_1/0_Brenau_2

New Line.l(r:p1rdm6710-p1rdt3282lv) Units=km Length=0.012520300000000002 bus1=p1rdt3282lv.1.2 bus2=p1rdm6710.1.2 switch=n enabled=y phases=2 Linecode=1P_UG_AL_1/0_Brenau_2

New Line.l(r:p1rdm6711-p1rlv6652) Units=km Length=0.0154222 bus1=p1rdm6711.1.2 bus2=p1rlv6652.1.2 switch=n enabled=y phases=2 Linecode=1P_UG_AL_1/0_Brenau_2

New Line.l(r:p1rdm6711-p1rdt3283lv) Units=km Length=0.00938501 bus1=p1rdt3283lv.1.2 bus2=p1rdm6711.1.2 switch=n enabled=y phases=2 Linecode=1P_UG_AL_1/0_Brenau_2

New Line.l(r:p1rdm6712-p1rlv6657) Units=km Length=0.00387291 bus1=p1rdm6712.1.2 bus2=p1rlv6657.1.2 switch=n enabled=y phases=2 Linecode=1P_UG_AL_1/0_Brenau_2

New Line.l(r:p1rdm6712-p1rdt3283lv) Units=km Length=0.00690072 bus1=p1rdt3283lv.1.2 bus2=p1rdm6712.1.2 switch=n enabled=y phases=2 Linecode=1P_UG_AL_1/0_Brenau_2

New Line.l(r:p1rdt3284lv-p1rlv6653) Units=km Length=0.0169067 bus1=p1rdt3284lv.1.2 bus2=p1rlv6653.1.2 switch=n enabled=y phases=2 Linecode=1P_UG_AL_1/0_Brenau_2

New Line.l(r:p1rdt3285lv-p1rlv6656) Units=km Length=0.0149879 bus1=p1rdt3285lv.1.2 bus2=p1rlv6656.1.2 switch=n enabled=y phases=2 Linecode=1P_UG_AL_1/0_Brenau_2

New Line.l(r:p1rdt3285lv-p1rlv6658) Units=km Length=0.040849800000000006 bus1=p1rdt3285lv.1.2 bus2=p1rlv6658.1.2 switch=n enabled=y phases=2 Linecode=1P_UG_AL_1/0_Brenau_2

New Line.l(r:p1rdm6716-p1rlv6659) Units=km Length=0.0183024 bus1=p1rdm6716.1.2 bus2=p1rlv6659.1.2 switch=n enabled=y phases=2 Linecode=1P_OH_AL_2/0_Rucina_2

New Line.l(r:p1rdm6716-p1rdt3286lv) Units=km Length=0.0389222 bus1=p1rdt3286lv.1.2 bus2=p1rdm6716.1.2 switch=n enabled=y phases=2 Linecode=1P_OH_AL_4/0_Zuzara_2

New Line.l(r:p1rdm6717-p1rlv7803) Units=km Length=0.00737794 bus1=p1rdm6717.1.2 bus2=p1rlv7803.1.2 switch=n enabled=y phases=2 Linecode=1P_UG_AL_4/0_Sweetbriar_2

New Line.l(r:p1rdm6717-p1rdt3286lv) Units=km Length=0.03628 bus1=p1rdt3286lv.1.2 bus2=p1rdm6717.1.2 switch=n enabled=y phases=2 Linecode=1P_UG_AL_4/0_Sweetbriar_2

New Line.l(r:p1rdm6719-p1rlv7805) Units=km Length=0.0380772 bus1=p1rdm6719.1.2 bus2=p1rlv7805.1.2 switch=n enabled=y phases=2 Linecode=1P_OH_AL_4/0_Zuzara_2

New Line.l(r:p1rdm6718-p1rlv6660) Units=km Length=0.018648 bus1=p1rdm6718.1.2 bus2=p1rlv6660.1.2 switch=n enabled=y phases=2 Linecode=1P_OH_AL_2/0_Rucina_2

New Line.l(r:p1rdm6718-p1rdm6719) Units=km Length=0.0193696 bus1=p1rdm6719.1.2 bus2=p1rdm6718.1.2 switch=n enabled=y phases=2 Linecode=1P_OH_AL_2/0_Rucina_2

New Line.l(r:p1rdm6719-p1rdt3287lv) Units=km Length=0.0585497 bus1=p1rdt3287lv.1.2 bus2=p1rdm6719.1.2 switch=n enabled=y phases=2 Linecode=1P_OH_AL_4/0_Zuzara_2

New Line.l(r:p1rdm6720-p1rlv9225) Units=km Length=0.0266282 bus1=p1rdm6720.1.2 bus2=p1rlv9225.1.2 switch=n enabled=y phases=2 Linecode=1P_OH_AL_2/0_Rucina_2

New Line.l(r:p1rdm6722-p1rlv9271) Units=km Length=0.0425512 bus1=p1rdm6722.1.2 bus2=p1rlv9271.1.2 switch=n enabled=y phases=2 Linecode=1P_OH_AL_4/0_Zuzara_2

New Line.l(r:p1rdm6720-p1rdm6722) Units=km Length=0.019685100000000004 bus1=p1rdm6720.1.2 bus2=p1rdm6722.1.2 switch=n enabled=y phases=2 Linecode=1P_OH_AL_2/0_Rucina_2

New Line.l(r:p1rdm6720-p1rdt3287lv) Units=km Length=0.039370300000000004 bus1=p1rdt3287lv.1.2 bus2=p1rdm6720.1.2 switch=n enabled=y phases=2 Linecode=1P_OH_AL_4/0_Zuzara_2

New Line.l(r:p1rdm6721-p1rlv9227) Units=km Length=0.023385 bus1=p1rdm6721.1.2 bus2=p1rlv9227.1.2 switch=n enabled=y phases=2 Linecode=1P_OH_AL_2/0_Rucina_2

New Line.l(r:p1rdm6721-p1rdt3287lv) Units=km Length=0.0602062 bus1=p1rdt3287lv.1.2 bus2=p1rdm6721.1.2 switch=n enabled=y phases=2 Linecode=1P_OH_AL_4/0_Zuzara_2

New Line.l(r:p1rdt3496lv-p1rlv7252) Units=km Length=0.001 bus1=p1rdt3496lv.1.2 bus2=p1rlv7252.1.2 switch=n enabled=y phases=2 Linecode=1P_OH_AL_4_Periwinkle_2

New Line.l(r:p1rdt3497lv-p1rlv7253) Units=km Length=0.001 bus1=p1rdt3497lv.1.2 bus2=p1rlv7253.1.2 switch=n enabled=y phases=2 Linecode=1P_OH_AL_4_Periwinkle_2

New Line.l(r:p1rdt3498lv-p1rlv7254) Units=km Length=0.010301000000000001 bus1=p1rdt3498lv.1.2 bus2=p1rlv7254.1.2 switch=n enabled=y phases=2 Linecode=1P_OH_AL_2/0_Rucina_2

New Line.l(r:p1rdm7304-p1rlv7255) Units=km Length=0.008001480000000002 bus1=p1rdm7304.1.2 bus2=p1rlv7255.1.2 switch=n enabled=y phases=2 Linecode=1P_OH_AL_2/0_Rucina_2

New Line.l(r:p1rdm7304-p1rdt3499lv) Units=km Length=0.00608896 bus1=p1rdt3499lv.1.2 bus2=p1rdm7304.1.2 switch=n enabled=y phases=2 Linecode=1P_OH_AL_2/0_Rucina_2

New Line.l(r:p1rdm7305-p1rlv7256) Units=km Length=0.00312947 bus1=p1rdm7305.1.2 bus2=p1rlv7256.1.2 switch=n enabled=y phases=2 Linecode=1P_OH_AL_4_Periwinkle_2

New Line.l(r:p1rdm7305-p1rdt3499lv) Units=km Length=0.0117607 bus1=p1rdt3499lv.1.2 bus2=p1rdm7305.1.2 switch=n enabled=y phases=2 Linecode=1P_OH_AL_2/0_Rucina_2

New Line.l(r:p1rdt3500lv-p1rlv7257) Units=km Length=0.0128321 bus1=p1rdt3500lv.1.2 bus2=p1rlv7257.1.2 switch=n enabled=y phases=2 Linecode=1P_OH_AL_2/0_Rucina_2

New Line.l(r:p1rdm7324-p1rlv7274) Units=km Length=0.0382271 bus1=p1rdm7324.1.2 bus2=p1rlv7274.1.2 switch=n enabled=y phases=2 Linecode=1P_OH_AL_4/0_Zuzara_2

New Line.l(r:p1rdm7324-p1rdt3508lv) Units=km Length=0.0260814 bus1=p1rdt3508lv.1.2 bus2=p1rdm7324.1.2 switch=n enabled=y phases=2 Linecode=1P_OH_AL_2/0_Rucina_2

New Line.l(r:p1rdm7325-p1rlv7276) Units=km Length=0.030500200000000005 bus1=p1rdm7325.1.2 bus2=p1rlv7276.1.2 switch=n enabled=y phases=2 Linecode=1P_OH_AL_4/0_Zuzara_2

New Line.l(r:p1rdm7325-p1rdt3508lv) Units=km Length=0.0212531 bus1=p1rdt3508lv.1.2 bus2=p1rdm7325.1.2 switch=n enabled=y phases=2 Linecode=1P_OH_AL_2/0_Rucina_2

New Line.l(r:p1rdt3509lv-p1rlv7275) Units=km Length=0.0300764 bus1=p1rdt3509lv.1.2 bus2=p1rlv7275.1.2 switch=n enabled=y phases=2 Linecode=1P_OH_AL_4/0_Zuzara_2

New Line.l(r:p1rdt3510lv-p1rlv7278) Units=km Length=0.00416639 bus1=p1rdt3510lv.1.2 bus2=p1rlv7278.1.2 switch=n enabled=y phases=2 Linecode=1P_OH_AL_2/0_Rucina_2

New Line.l(r:p1rdm7327-p1rlv7277) Units=km Length=0.00645565 bus1=p1rdm7327.1.2 bus2=p1rlv7277.1.2 switch=n enabled=y phases=2 Linecode=1P_OH_AL_2/0_Rucina_2

New Line.l(r:p1rdm7329-p1rlv7279) Units=km Length=0.00265317 bus1=p1rdm7329.1.2 bus2=p1rlv7279.1.2 switch=n enabled=y phases=2 Linecode=1P_OH_AL_4_Periwinkle_2

New Line.l(r:p1rdm7327-p1rdm7329) Units=km Length=0.0158349 bus1=p1rdm7327.1.2 bus2=p1rdm7329.1.2 switch=n enabled=y phases=2 Linecode=1P_OH_AL_2/0_Rucina_2

New Line.l(r:p1rdm7327-p1rdt3510lv) Units=km Length=0.0404674 bus1=p1rdt3510lv.1.2 bus2=p1rdm7327.1.2 switch=n enabled=y phases=2 Linecode=1P_OH_AL_4/0_Zuzara_2

New Line.l(r:p1rdm7330-p1rlv7280) Units=km Length=0.00727374 bus1=p1rdm7330.1.2 bus2=p1rlv7280.1.2 switch=n enabled=y phases=2 Linecode=1P_OH_AL_2/0_Rucina_2

New Line.l(r:p1rdm7330-p1rdt3510lv) Units=km Length=0.0901919 bus1=p1rdt3510lv.1.2 bus2=p1rdm7330.1.2 switch=n enabled=y phases=2 Linecode=1P_OH_AL_4/0_Zuzara_2

New Line.l(r:p1rdt3511lv-p1rlv7281) Units=km Length=0.001 bus1=p1rdt3511lv.1.2 bus2=p1rlv7281.1.2 switch=n enabled=y phases=2 Linecode=1P_OH_AL_4_Periwinkle_2

New Line.l(r:p1rdt3512lv-p1rlv7282) Units=km Length=0.001 bus1=p1rdt3512lv.1.2 bus2=p1rlv7282.1.2 switch=n enabled=y phases=2 Linecode=1P_OH_AL_4_Periwinkle_2

New Line.l(r:p1rdt3513lv-p1rlv7283) Units=km Length=0.0144802 bus1=p1rdt3513lv.1.2 bus2=p1rlv7283.1.2 switch=n enabled=y phases=2 Linecode=1P_OH_AL_2/0_Rucina_2

New Line.l(r:p1rdt3514lv-p1rlv7284) Units=km Length=0.0158851 bus1=p1rdt3514lv.1.2 bus2=p1rlv7284.1.2 switch=n enabled=y phases=2 Linecode=1P_OH_AL_2/0_Rucina_2

New Line.l(r:p1rdt3515lv-p1rlv7285) Units=km Length=0.00948859 bus1=p1rdt3515lv.1.2 bus2=p1rlv7285.1.2 switch=n enabled=y phases=2 Linecode=1P_OH_AL_2/0_Rucina_2

New Line.l(r:p1rdt3515lv-p1rlv7286) Units=km Length=0.00948859 bus1=p1rdt3515lv.1.2 bus2=p1rlv7286.1.2 switch=n enabled=y phases=2 Linecode=1P_OH_AL_2/0_Rucina_2

New Line.l(r:p1rdt3516lv-p1rlv7287) Units=km Length=0.0106211 bus1=p1rdt3516lv.1.2 bus2=p1rlv7287.1.2 switch=n enabled=y phases=2 Linecode=1P_OH_AL_2/0_Rucina_2

New Line.l(r:p1rdt3516lv-p1rlv7288) Units=km Length=0.0106211 bus1=p1rdt3516lv.1.2 bus2=p1rlv7288.1.2 switch=n enabled=y phases=2 Linecode=1P_OH_AL_2/0_Rucina_2

New Line.l(r:p1rdt3517lv-p1rlv7289) Units=km Length=0.0478962 bus1=p1rdt3517lv.1.2 bus2=p1rlv7289.1.2 switch=n enabled=y phases=2 Linecode=1P_OH_AL_4/0_Zuzara_2

New Line.l(r:p1rdt3518lv-p1rlv7290) Units=km Length=0.046181 bus1=p1rdt3518lv.1.2 bus2=p1rlv7290.1.2 switch=n enabled=y phases=2 Linecode=1P_OH_AL_4/0_Zuzara_2

New Line.l(r:p1rdt3519lv-p1rlv7291) Units=km Length=0.00341397 bus1=p1rdt3519lv.1.2 bus2=p1rlv7291.1.2 switch=n enabled=y phases=2 Linecode=1P_OH_AL_4_Periwinkle_2

New Line.l(r:p1rdt3520lv-p1rlv7292) Units=km Length=0.0876144 bus1=p1rdt3520lv.1.2 bus2=p1rlv7292.1.2 switch=n enabled=y phases=2 Linecode=1P_OH_AL_4/0_Zuzara_2

New Line.l(r:p1rdt3540lv-p1rlv7317) Units=km Length=0.0530479 bus1=p1rdt3540lv.1.2 bus2=p1rlv7317.1.2 switch=n enabled=y phases=2 Linecode=1P_OH_AL_4/0_Zuzara_2

New Line.l(r:p1rdt3541lv-p1rlv7318) Units=km Length=0.001 bus1=p1rdt3541lv.1.2 bus2=p1rlv7318.1.2 switch=n enabled=y phases=2 Linecode=1P_OH_AL_4_Periwinkle_2

New Line.l(r:p1rdt3542lv-p1rlv7319) Units=km Length=0.023953200000000004 bus1=p1rdt3542lv.1.2 bus2=p1rlv7319.1.2 switch=n enabled=y phases=2 Linecode=1P_OH_AL_2/0_Rucina_2

New Line.l(r:p1rdt3543lv-p1rlv7320) Units=km Length=0.0507921 bus1=p1rdt3543lv.1.2 bus2=p1rlv7320.1.2 switch=n enabled=y phases=2 Linecode=1P_OH_AL_4/0_Zuzara_2

New Line.l(r:p1rdt3543lv-p1rlv7321) Units=km Length=0.03906140000000001 bus1=p1rdt3543lv.1.2 bus2=p1rlv7321.1.2 switch=n enabled=y phases=2 Linecode=1P_OH_AL_4/0_Zuzara_2

New Line.l(r:p1rdt3544lv-p1rlv7322) Units=km Length=0.001 bus1=p1rdt3544lv.1.2 bus2=p1rlv7322.1.2 switch=n enabled=y phases=2 Linecode=1P_OH_AL_4_Periwinkle_2

New Line.l(r:p1rdt3545lv-p1rlv7323) Units=km Length=0.001 bus1=p1rdt3545lv.1.2 bus2=p1rlv7323.1.2 switch=n enabled=y phases=2 Linecode=1P_OH_AL_4_Periwinkle_2

New Line.l(r:p1rdt3546lv-p1rlv7324) Units=km Length=0.0897188 bus1=p1rdt3546lv.1.2 bus2=p1rlv7324.1.2 switch=n enabled=y phases=2 Linecode=1P_OH_AL_4/0_Zuzara_2

New Line.l(r:p1rdt3547lv-p1rlv7326) Units=km Length=0.0169677 bus1=p1rdt3547lv.1.2 bus2=p1rlv7326.1.2 switch=n enabled=y phases=2 Linecode=1P_OH_AL_2/0_Rucina_2

New Line.l(r:p1rdm7378-p1rlv7327) Units=km Length=0.0250971 bus1=p1rdm7378.1.2 bus2=p1rlv7327.1.2 switch=n enabled=y phases=2 Linecode=1P_OH_AL_2/0_Rucina_2

New Line.l(r:p1rdm7376-p1rlv7325) Units=km Length=0.022359100000000003 bus1=p1rdm7376.1.2 bus2=p1rlv7325.1.2 switch=n enabled=y phases=2 Linecode=1P_OH_AL_2/0_Rucina_2

New Line.l(r:p1rdm7376-p1rdm7378) Units=km Length=0.0127851 bus1=p1rdm7378.1.2 bus2=p1rdm7376.1.2 switch=n enabled=y phases=2 Linecode=1P_OH_AL_2/0_Rucina_2

New Line.l(r:p1rdm7378-p1rdt3547lv) Units=km Length=0.0514927 bus1=p1rdt3547lv.1.2 bus2=p1rdm7378.1.2 switch=n enabled=y phases=2 Linecode=1P_OH_AL_4/0_Zuzara_2

New Line.l(r:p1rdm7379-p1rlv7329) Units=km Length=0.0180769 bus1=p1rdm7379.1.2 bus2=p1rlv7329.1.2 switch=n enabled=y phases=2 Linecode=1P_OH_AL_2/0_Rucina_2

New Line.l(r:p1rdm7379-p1rlv7331) Units=km Length=0.0107092 bus1=p1rdm7379.1.2 bus2=p1rlv7331.1.2 switch=n enabled=y phases=2 Linecode=1P_OH_AL_2/0_Rucina_2

New Line.l(r:p1rdm7380-p1rlv7330) Units=km Length=0.00243016 bus1=p1rdm7380.1.2 bus2=p1rlv7330.1.2 switch=n enabled=y phases=2 Linecode=1P_OH_AL_4_Periwinkle_2

New Line.l(r:p1rdm7379-p1rdm7380) Units=km Length=0.021262 bus1=p1rdm7379.1.2 bus2=p1rdm7380.1.2 switch=n enabled=y phases=2 Linecode=1P_OH_AL_2/0_Rucina_2

New Line.l(r:p1rdm7379-p1rdt3547lv) Units=km Length=0.0387229 bus1=p1rdt3547lv.1.2 bus2=p1rdm7379.1.2 switch=n enabled=y phases=2 Linecode=1P_OH_AL_4/0_Zuzara_2

New Line.l(r:p1rdt3549lv-p1rlv7332) Units=km Length=0.0134006 bus1=p1rdt3549lv.1.2 bus2=p1rlv7332.1.2 switch=n enabled=y phases=2 Linecode=1P_OH_AL_2/0_Rucina_2

New Line.l(r:p1rdt3550lv-p1rlv7333) Units=km Length=0.02384 bus1=p1rdt3550lv.1.2 bus2=p1rlv7333.1.2 switch=n enabled=y phases=2 Linecode=1P_OH_AL_2/0_Rucina_2

New Line.l(r:p1rdt3551lv-p1rlv7334) Units=km Length=0.0618198 bus1=p1rdt3551lv.1.2 bus2=p1rlv7334.1.2 switch=n enabled=y phases=2 Linecode=1P_OH_AL_4/0_Zuzara_2

New Line.l(r:p1rdt3552lv-p1rlv7335) Units=km Length=0.0143382 bus1=p1rdt3552lv.1.2 bus2=p1rlv7335.1.2 switch=n enabled=y phases=2 Linecode=1P_OH_AL_2/0_Rucina_2

New Line.l(r:p1rdt3566lv-p1rlv7361) Units=km Length=0.0136088 bus1=p1rdt3566lv.1.2 bus2=p1rlv7361.1.2 switch=n enabled=y phases=2 Linecode=1P_OH_AL_2/0_Rucina_2

New Line.l(r:p1rdm7416-p1rlv7359) Units=km Length=0.009121190000000001 bus1=p1rdm7416.1.2 bus2=p1rlv7359.1.2 switch=n enabled=y phases=2 Linecode=1P_OH_AL_2/0_Rucina_2

New Line.l(r:p1rdm7416-p1rdt3566lv) Units=km Length=0.0262888 bus1=p1rdt3566lv.1.2 bus2=p1rdm7416.1.2 switch=n enabled=y phases=2 Linecode=1P_OH_AL_2/0_Rucina_2

New Line.l(r:p1rdm7417-p1rlv7360) Units=km Length=0.0142852 bus1=p1rdm7417.1.2 bus2=p1rlv7360.1.2 switch=n enabled=y phases=2 Linecode=1P_OH_AL_2/0_Rucina_2

New Line.l(r:p1rdm7417-p1rdt3566lv) Units=km Length=0.014424 bus1=p1rdt3566lv.1.2 bus2=p1rdm7417.1.2 switch=n enabled=y phases=2 Linecode=1P_OH_AL_2/0_Rucina_2

New Line.l(r:p1rdt3567lv-p1rlv7363) Units=km Length=0.0156078 bus1=p1rdt3567lv.1.2 bus2=p1rlv7363.1.2 switch=n enabled=y phases=2 Linecode=1P_OH_AL_2/0_Rucina_2

New Line.l(r:p1rdt3567lv-p1rlv7368) Units=km Length=0.013499 bus1=p1rdt3567lv.1.2 bus2=p1rlv7368.1.2 switch=n enabled=y phases=2 Linecode=1P_OH_AL_2/0_Rucina_2

New Line.l(r:p1rdm7421-p1rlv7364) Units=km Length=0.0155453 bus1=p1rdm7421.1.2 bus2=p1rlv7364.1.2 switch=n enabled=y phases=2 Linecode=1P_OH_AL_2/0_Rucina_2

New Line.l(r:p1rdm7421-p1rlv7365) Units=km Length=0.0232748 bus1=p1rdm7421.1.2 bus2=p1rlv7365.1.2 switch=n enabled=y phases=2 Linecode=1P_OH_AL_2/0_Rucina_2

New Line.l(r:p1rdm7421-p1rlv9188) Units=km Length=0.0114171 bus1=p1rdm7421.1.2 bus2=p1rlv9188.1.2 switch=n enabled=y phases=2 Linecode=1P_OH_AL_2/0_Rucina_2

New Line.l(r:p1rdm7421-p1rdt3567lv) Units=km Length=0.017575700000000003 bus1=p1rdt3567lv.1.2 bus2=p1rdm7421.1.2 switch=n enabled=y phases=2 Linecode=1P_OH_AL_2/0_Rucina_2

New Line.l(r:p1rdm7424-p1rlv7367) Units=km Length=0.0162624 bus1=p1rdm7424.1.2 bus2=p1rlv7367.1.2 switch=n enabled=y phases=2 Linecode=1P_OH_AL_2/0_Rucina_2

New Line.l(r:p1rdm7419-p1rlv7362) Units=km Length=0.0186308 bus1=p1rdm7419.1.2 bus2=p1rlv7362.1.2 switch=n enabled=y phases=2 Linecode=1P_OH_AL_2/0_Rucina_2

New Line.l(r:p1rdm7423-p1rlv7366) Units=km Length=0.0108378 bus1=p1rdm7423.1.2 bus2=p1rlv7366.1.2 switch=n enabled=y phases=2 Linecode=1P_OH_AL_2/0_Rucina_2

New Line.l(r:p1rdm7419-p1rdm7423) Units=km Length=0.0453784 bus1=p1rdm7419.1.2 bus2=p1rdm7423.1.2 switch=n enabled=y phases=2 Linecode=1P_OH_AL_4/0_Zuzara_2

New Line.l(r:p1rdm7419-p1rdm7424) Units=km Length=0.0102768 bus1=p1rdm7424.1.2 bus2=p1rdm7419.1.2 switch=n enabled=y phases=2 Linecode=1P_OH_AL_2/0_Rucina_2

New Line.l(r:p1rdm7424-p1rdt3567lv) Units=km Length=0.0175779 bus1=p1rdt3567lv.1.2 bus2=p1rdm7424.1.2 switch=n enabled=y phases=2 Linecode=1P_OH_AL_2/0_Rucina_2

New Line.l(r:p1rdt3568lv-p1rlv9186) Units=km Length=0.00618328 bus1=p1rdt3568lv.1.2 bus2=p1rlv9186.1.2 switch=n enabled=y phases=2 Linecode=1P_OH_AL_2/0_Rucina_2

New Line.l(r:p1rdm7428-p1rlv7375) Units=km Length=0.00799473 bus1=p1rdm7428.1.2 bus2=p1rlv7375.1.2 switch=n enabled=y phases=2 Linecode=1P_OH_AL_2/0_Rucina_2

New Line.l(r:p1rdm7427-p1rlv7370) Units=km Length=0.0100734 bus1=p1rdm7427.1.2 bus2=p1rlv7370.1.2 switch=n enabled=y phases=2 Linecode=1P_OH_AL_2/0_Rucina_2

New Line.l(r:p1rdm7427-p1rlv9187) Units=km Length=0.011552700000000003 bus1=p1rdm7427.1.2 bus2=p1rlv9187.1.2 switch=n enabled=y phases=2 Linecode=1P_OH_AL_2/0_Rucina_2

New Line.l(r:p1rdm7427-p1rdm7428) Units=km Length=0.03859350000000001 bus1=p1rdm7428.1.2 bus2=p1rdm7427.1.2 switch=n enabled=y phases=2 Linecode=1P_OH_AL_4/0_Zuzara_2

New Line.l(r:p1rdm7428-p1rdt3568lv) Units=km Length=0.0176682 bus1=p1rdt3568lv.1.2 bus2=p1rdm7428.1.2 switch=n enabled=y phases=2 Linecode=1P_OH_AL_2/0_Rucina_2

New Line.l(r:p1rdm7431-p1rlv9185) Units=km Length=0.00783782 bus1=p1rdm7431.1.2 bus2=p1rlv9185.1.2 switch=n enabled=y phases=2 Linecode=1P_OH_AL_2/0_Rucina_2

New Line.l(r:p1rdm7429-p1rlv9183) Units=km Length=0.00441056 bus1=p1rdm7429.1.2 bus2=p1rlv9183.1.2 switch=n enabled=y phases=2 Linecode=1P_OH_AL_2/0_Rucina_2

New Line.l(r:p1rdm7429-p1rdm7431) Units=km Length=0.0353363 bus1=p1rdm7431.1.2 bus2=p1rdm7429.1.2 switch=n enabled=y phases=2 Linecode=1P_OH_AL_4/0_Zuzara_2

New Line.l(r:p1rdm7430-p1rlv9184) Units=km Length=0.00577862 bus1=p1rdm7430.1.2 bus2=p1rlv9184.1.2 switch=n enabled=y phases=2 Linecode=1P_OH_AL_2/0_Rucina_2

New Line.l(r:p1rdm7430-p1rdm7431) Units=km Length=0.0176682 bus1=p1rdm7431.1.2 bus2=p1rdm7430.1.2 switch=n enabled=y phases=2 Linecode=1P_OH_AL_2/0_Rucina_2

New Line.l(r:p1rdm7431-p1rdt3568lv) Units=km Length=0.0176682 bus1=p1rdt3568lv.1.2 bus2=p1rdm7431.1.2 switch=n enabled=y phases=2 Linecode=1P_OH_AL_2/0_Rucina_2

New Line.l(r:p1rdm7434-p1rlv7371) Units=km Length=0.0150623 bus1=p1rdm7434.1.2 bus2=p1rlv7371.1.2 switch=n enabled=y phases=2 Linecode=1P_OH_AL_2/0_Rucina_2

New Line.l(r:p1rdm7434-p1rlv7373) Units=km Length=0.0293963 bus1=p1rdm7434.1.2 bus2=p1rlv7373.1.2 switch=n enabled=y phases=2 Linecode=1P_OH_AL_4/0_Zuzara_2

New Line.l(r:p1rdm7434-p1rdt3569lv) Units=km Length=0.008269470000000001 bus1=p1rdt3569lv.1.2 bus2=p1rdm7434.1.2 switch=n enabled=y phases=2 Linecode=1P_OH_AL_2/0_Rucina_2

New Line.l(r:p1rdm7435-p1rlv7372) Units=km Length=0.00559893 bus1=p1rdm7435.1.2 bus2=p1rlv7372.1.2 switch=n enabled=y phases=2 Linecode=1P_OH_AL_2/0_Rucina_2

New Line.l(r:p1rdm7435-p1rdt3569lv) Units=km Length=0.0161131 bus1=p1rdt3569lv.1.2 bus2=p1rdm7435.1.2 switch=n enabled=y phases=2 Linecode=1P_OH_AL_2/0_Rucina_2

New Line.l(r:p1rdm7437-p1rlv7374) Units=km Length=0.0180549 bus1=p1rdm7437.1.2 bus2=p1rlv7374.1.2 switch=n enabled=y phases=2 Linecode=1P_OH_AL_2/0_Rucina_2

New Line.l(r:p1rdm7437-p1rdt3570lv) Units=km Length=0.0508964 bus1=p1rdt3570lv.1.2 bus2=p1rdm7437.1.2 switch=n enabled=y phases=2 Linecode=1P_OH_AL_4/0_Zuzara_2

New Line.l(r:p1rdm7438-p1rlv9190) Units=km Length=0.0129963 bus1=p1rdm7438.1.2 bus2=p1rlv9190.1.2 switch=n enabled=y phases=2 Linecode=1P_OH_AL_2/0_Rucina_2

New Line.l(r:p1rdm7439-p1rlv9191) Units=km Length=0.01011 bus1=p1rdm7439.1.2 bus2=p1rlv9191.1.2 switch=n enabled=y phases=2 Linecode=1P_OH_AL_2/0_Rucina_2

New Line.l(r:p1rdm7438-p1rdm7439) Units=km Length=0.0169249 bus1=p1rdm7438.1.2 bus2=p1rdm7439.1.2 switch=n enabled=y phases=2 Linecode=1P_OH_AL_2/0_Rucina_2

New Line.l(r:p1rdm7438-p1rdt3570lv) Units=km Length=0.0284625 bus1=p1rdt3570lv.1.2 bus2=p1rdm7438.1.2 switch=n enabled=y phases=2 Linecode=1P_OH_AL_4/0_Zuzara_2

New Line.l(r:p1rdt4066lv-p1rlv8277) Units=km Length=0.014791700000000001 bus1=p1rdt4066lv.1.2 bus2=p1rlv8277.1.2 switch=n enabled=y phases=2 Linecode=1P_OH_AL_2/0_Rucina_2

New Line.l(r:p1rdt4384lv-p1rlv8863) Units=km Length=0.0551098 bus1=p1rdt4384lv.1.2 bus2=p1rlv8863.1.2 switch=n enabled=y phases=2 Linecode=1P_OH_AL_4/0_Zuzara_2

New Line.l(r:p1rdt4455lv-p1rlv9054) Units=km Length=0.0076934 bus1=p1rdt4455lv.1.2 bus2=p1rlv9054.1.2 switch=n enabled=y phases=2 Linecode=1P_OH_AL_2/0_Rucina_2

New Line.l(r:p1rdt4455lv-p1rlv9055) Units=km Length=0.0076934 bus1=p1rdt4455lv.1.2 bus2=p1rlv9055.1.2 switch=n enabled=y phases=2 Linecode=1P_OH_AL_2/0_Rucina_2

New Line.l(r:p1rdt4456lv-p1rlv9056) Units=km Length=0.014668500000000001 bus1=p1rdt4456lv.1.2 bus2=p1rlv9056.1.2 switch=n enabled=y phases=2 Linecode=1P_OH_AL_2/0_Rucina_2

New Line.l(r:p1rdt4456lv-p1rlv9057) Units=km Length=0.014668500000000001 bus1=p1rdt4456lv.1.2 bus2=p1rlv9057.1.2 switch=n enabled=y phases=2 Linecode=1P_OH_AL_2/0_Rucina_2

New Line.l(r:p1rdt4457lv-p1rlv9058) Units=km Length=0.0074970900000000005 bus1=p1rdt4457lv.1.2 bus2=p1rlv9058.1.2 switch=n enabled=y phases=2 Linecode=1P_OH_AL_2/0_Rucina_2

New Line.l(r:p1rdt4457lv-p1rlv9059) Units=km Length=0.0262092 bus1=p1rdt4457lv.1.2 bus2=p1rlv9059.1.2 switch=n enabled=y phases=2 Linecode=1P_OH_AL_2/0_Rucina_2

New Line.l(r:p1rdt4457lv-p1rlv9060) Units=km Length=0.0273844 bus1=p1rdt4457lv.1.2 bus2=p1rlv9060.1.2 switch=n enabled=y phases=2 Linecode=1P_OH_AL_4/0_Zuzara_2

New Line.l(r:p1rdm9123-p1rlv9523) Units=km Length=0.03785290000000001 bus1=p1rdm9123.1.2 bus2=p1rlv9523.1.2 switch=n enabled=y phases=2 Linecode=1P_OH_AL_4/0_Zuzara_2

New Line.l(r:p1rdm9123-p1rdt4457lv) Units=km Length=0.0367078 bus1=p1rdt4457lv.1.2 bus2=p1rdm9123.1.2 switch=n enabled=y phases=2 Linecode=1P_OH_AL_4/0_Zuzara_2

New Line.l(r:p1rdt4513lv-p1rlv9193) Units=km Length=0.0124976 bus1=p1rdt4513lv.1.2 bus2=p1rlv9193.1.2 switch=n enabled=y phases=2 Linecode=1P_OH_AL_2/0_Rucina_2

New Line.l(r:p1rdt4513lv-p1rlv9195) Units=km Length=0.0178635 bus1=p1rdt4513lv.1.2 bus2=p1rlv9195.1.2 switch=n enabled=y phases=2 Linecode=1P_OH_AL_2/0_Rucina_2

New Line.l(r:p1rdm9240-p1rlv9189) Units=km Length=0.0141256 bus1=p1rdm9240.1.2 bus2=p1rlv9189.1.2 switch=n enabled=y phases=2 Linecode=1P_OH_AL_2/0_Rucina_2

New Line.l(r:p1rdm9240-p1rlv9194) Units=km Length=0.0158895 bus1=p1rdm9240.1.2 bus2=p1rlv9194.1.2 switch=n enabled=y phases=2 Linecode=1P_OH_AL_2/0_Rucina_2

New Line.l(r:p1rdm9240-p1rdt4513lv) Units=km Length=0.0175876 bus1=p1rdt4513lv.1.2 bus2=p1rdm9240.1.2 switch=n enabled=y phases=2 Linecode=1P_OH_AL_2/0_Rucina_2

New Line.l(r:p1rdm9241-p1rlv9192) Units=km Length=0.00566173 bus1=p1rdm9241.1.2 bus2=p1rlv9192.1.2 switch=n enabled=y phases=2 Linecode=1P_OH_AL_2/0_Rucina_2

New Line.l(r:p1rdm9241-p1rdt4513lv) Units=km Length=0.07442130000000001 bus1=p1rdt4513lv.1.2 bus2=p1rdm9241.1.2 switch=n enabled=y phases=2 Linecode=1P_OH_AL_4/0_Zuzara_2

New Line.l(r:p1rdt4514lv-p1rlv9215) Units=km Length=0.01374 bus1=p1rdt4514lv.1.2 bus2=p1rlv9215.1.2 switch=n enabled=y phases=2 Linecode=1P_OH_AL_2/0_Rucina_2

New Line.l(r:p1rdm9246-p1rlv9197) Units=km Length=0.0104334 bus1=p1rdm9246.1.2 bus2=p1rlv9197.1.2 switch=n enabled=y phases=2 Linecode=1P_OH_AL_2/0_Rucina_2

...